32

C         0.4075110748    1.1564879604    0.5693252765
C         0.2867333652   -0.4013054565    0.6451314742
C        -0.7704817748    1.8767811800   -0.0659111768
C        -0.8997391882   -0.9870116434   -0.0882626974
O        -1.9001427939    1.6228642611    0.6353345596
O        -0.7153136821    2.6268228359   -1.0122215916
O        -1.3321657896   -2.1081153181    0.5347555850
O        -1.3726900921   -0.5810778668   -1.1279153784
C        -2.3959595721   -2.8039575817   -0.1365969218
C        -3.1080452568    2.1259635795    0.0407049604
C         1.7204306771    1.3281378380   -0.2327130478
C         2.9207356403    1.0531483762    0.6952620349
C         2.8069230413   -0.4903212282    0.8641026016
C         1.6200854658   -0.8253200198   -0.0850855076
O         1.7284393307    0.1831854667   -1.0956761696
H         0.4991575840    1.5595655899    1.5838752523
H         0.2673911571   -0.7658217157    1.6733994773
H        -2.0802249756   -3.1148996010   -1.1367351615
H        -3.2689275520    1.6415002141   -0.9265638133
H         3.8519707627    1.3278174322    0.1924020195
H         2.8688045146    1.6043300759    1.6395209648
H         3.7114311374   -0.9992210841    0.5183068299
H         2.6188849755   -0.8047069616    1.8955201753
H        -2.6171195245   -3.6725196232    0.4846602893
H        -3.2757605343   -2.1610377411   -0.2293892063
H        -3.0499941071    3.2084107089   -0.1009106778
H        -3.9081174008    1.8708591401    0.7371303844
H         1.7572652014    2.2388673018   -0.8279561166
C         1.6398509467   -2.2070803586   -0.7047301568
H         2.6092966498   -2.3877624380   -1.1788097579
H         1.4710344350   -2.9735330026    0.0582519415
H         0.8638365766   -2.2946022001   -1.4709738588
