27

C         0.8309554145    0.3765994778    0.2172043048
C        -0.5090093021    0.7850157369    0.0925175351
C         1.1867971625   -1.0760336837    0.3724411219
C        -1.6015371945   -0.2274279263    0.1976217886
O         0.9063374565   -1.7672879315   -0.7498676550
O         1.7236452538   -1.5470711491    1.3507571876
O        -2.7765580013    0.2374944653   -0.2836743188
O        -1.4797821270   -1.3398615996    0.6732827117
C        -3.8825890652   -0.6735020474   -0.1747145193
C         1.0600802286   -3.1924733234   -0.6362344135
C         1.8719851167    1.3192069472    0.2000896414
C         1.5406080745    2.6701378486    0.0467679129
C         0.2142922007    3.0824249332   -0.0835001430
C        -0.8118416209    2.1436412787   -0.0610370460
H        -4.0676866536   -0.9318241422    0.8718826093
H         2.0825251569   -3.4520117309   -0.3484824916
H        -0.0180046785    4.1373341535   -0.1984826010
H        -4.7375922691   -0.1460264780   -0.5988940190
H        -3.6790403101   -1.5913560072   -0.7336744566
H         0.8233362971   -3.5920436010   -1.6230844936
H         0.3626018198   -3.5764256858    0.1135503995
H         2.3379471503    3.4089180150    0.0286966927
H        -1.8475556663    2.4503033934   -0.1500557421
C         3.3118408929    0.8831113727    0.3391349501
H         3.4829253161    0.4139183796    1.3129884779
H         3.9917657934    1.7329637121    0.2316801919
H         3.5758998716    0.1379369663   -0.4209705969
